<?xml version="1.0" encoding="UTF-8"?>
<!DOCTYPE network SYSTEM "http://www.matsim.org/files/dtd/network_v2.dtd">
<network>

<!-- ====================================================================== -->

	<nodes>
		<node id="100716" x="37324.0" y="13755.0" >
		</node>
		<node id="101032" x="30139.0" y="15420.0" >
		</node>
		<node id="101033" x="30208.0" y="15625.0" >
		</node>
		<node id="101034" x="30393.0" y="15789.0" >
		</node>
		<node id="101035" x="30657.0" y="15872.0" >
		</node>
		<node id="101036" x="30894.0" y="15909.0" >
		</node>
		<node id="101037" x="31038.0" y="15930.0" >
		</node>
		<node id="101038" x="31028.0" y="16008.0" >
		</node>
		<node id="101039" x="31005.0" y="16075.0" >
		</node>
		<node id="101040" x="31088.0" y="16088.0" >
		</node>
		<node id="101041" x="31223.0" y="16116.0" >
		</node>
		<node id="101042" x="31314.0" y="16133.0" >
		</node>
		<node id="101043" x="31359.0" y="16150.0" >
		</node>
		<node id="101044" x="31404.0" y="16095.0" >
		</node>
		<node id="101045" x="31511.0" y="16197.0" >
		</node>
		<node id="101046" x="31587.0" y="16260.0" >
		</node>
		<node id="101047" x="31639.0" y="16336.0" >
		</node>
		<node id="101048" x="31689.0" y="16311.0" >
		</node>
		<node id="101049" x="31645.0" y="16202.0" >
		</node>
		<node id="101050" x="31556.0" y="16137.0" >
		</node>
		<node id="101051" x="31450.0" y="16041.0" >
		</node>
		<node id="101052" x="31347.0" y="15982.0" >
		</node>
		<node id="101053" x="31253.0" y="15966.0" >
		</node>
		<node id="101054" x="31116.0" y="15930.0" >
		</node>
		<node id="101055" x="31105.0" y="16015.0" >
		</node>
		<node id="101056" x="31234.0" y="16048.0" >
		</node>
		<node id="101057" x="31321.0" y="16068.0" >
		</node>
		<node id="101058" x="31481.0" y="16006.0" >
		</node>
		<node id="101059" x="31343.0" y="15918.0" >
		</node>
		<node id="101060" x="31265.0" y="15903.0" >
		</node>
		<node id="101061" x="31274.0" y="15847.0" >
		</node>
		<node id="101062" x="31143.0" y="15816.0" >
		</node>
		<node id="101063" x="31066.0" y="15797.0" >
		</node>
		<node id="101064" x="31309.0" y="15780.0" >
		</node>
		<node id="101065" x="31354.0" y="15711.0" >
		</node>
		<node id="101066" x="31464.0" y="15883.0" >
		</node>
		<node id="101067" x="31647.0" y="15860.0" >
		</node>
		<node id="101068" x="31685.0" y="15950.0" >
		</node>
		<node id="101069" x="31731.0" y="16050.0" >
		</node>
		<node id="101070" x="31821.0" y="16140.0" >
		</node>
		<node id="101071" x="31697.0" y="15880.0" >
		</node>
		<node id="101074" x="32003.0" y="16118.0" >
		</node>
		<node id="101075" x="32005.0" y="16513.0" >
		</node>
		<node id="101077" x="32320.0" y="16575.0" >
		</node>
		<node id="101079" x="32619.0" y="16663.0" >
		</node>
		<node id="101080" x="32861.0" y="16645.0" >
		</node>
		<node id="101085" x="32372.0" y="16775.0" >
		</node>
		<node id="101086" x="32302.0" y="16656.0" >
		</node>
		<node id="101087" x="31964.0" y="16565.0" >
		</node>
		<node id="101088" x="31986.0" y="16494.0" >
		</node>
		<node id="101089" x="32005.0" y="16435.0" >
		</node>
		<node id="101090" x="32103.0" y="16435.0" >
		</node>
		<node id="101091" x="32210.0" y="16466.0" >
		</node>
		<node id="101092" x="32344.0" y="16507.0" >
		</node>
		<node id="101093" x="32410.0" y="16535.0" >
		</node>
		<node id="101094" x="32553.0" y="16565.0" >
		</node>
		<node id="101095" x="32715.0" y="16558.0" >
		</node>
		<node id="101096" x="32860.0" y="16555.0" >
		</node>
		<node id="101097" x="32849.0" y="16441.0" >
		</node>
		<node id="101098" x="32703.0" y="16446.0" >
		</node>
		<node id="101099" x="32552.0" y="16455.0" >
		</node>
		<node id="101101" x="32432.0" y="16441.0" >
		</node>
		<node id="101102" x="32372.0" y="16412.0" >
		</node>
		<node id="101103" x="32247.0" y="16389.0" >
		</node>
		<node id="101104" x="32135.0" y="16319.0" >
		</node>
		<node id="101105" x="31971.0" y="16359.0" >
		</node>
		<node id="101106" x="31731.0" y="16418.0" >
		</node>
		<node id="101107" x="31687.0" y="16432.0" >
		</node>
		<node id="101109" x="32853.0" y="16394.0" >
		</node>
		<node id="101110" x="32701.0" y="16401.0" >
		</node>
		<node id="101111" x="32546.0" y="16408.0" >
		</node>
		<node id="101112" x="32494.0" y="16413.0" >
		</node>
		<node id="101113" x="32469.0" y="16374.0" >
		</node>
		<node id="101114" x="32381.0" y="16372.0" >
		</node>
		<node id="101115" x="32219.0" y="16327.0" >
		</node>
		<node id="101116" x="32358.0" y="16328.0" >
		</node>
		<node id="101117" x="32464.0" y="16309.0" >
		</node>
		<node id="101118" x="32542.0" y="16316.0" >
		</node>
		<node id="101119" x="32694.0" y="16311.0" >
		</node>
		<node id="101120" x="32844.0" y="16301.0" >
		</node>
		<node id="101121" x="32852.0" y="16350.0" >
		</node>
		<node id="101122" x="32703.0" y="16364.0" >
		</node>
		<node id="101123" x="32545.0" y="16365.0" >
		</node>
		<node id="101124" x="32544.0" y="16262.0" >
		</node>
		<node id="101125" x="32404.0" y="16248.0" >
		</node>
		<node id="101126" x="32178.0" y="16199.0" >
		</node>
		<node id="101127" x="32114.0" y="16083.0" >
		</node>
		<node id="101128" x="32279.0" y="16207.0" >
		</node>
		<node id="101129" x="32537.0" y="16151.0" >
		</node>
		<node id="101130" x="32742.0" y="16170.0" >
		</node>
		<node id="101131" x="32692.0" y="16258.0" >
		</node>
		<node id="101132" x="32844.0" y="16249.0" >
		</node>
		<node id="101133" x="32858.0" y="16627.0" >
		</node>
		<node id="101134" x="32709.0" y="16630.0" >
		</node>
		<node id="101135" x="32585.0" y="16647.0" >
		</node>
		<node id="101136" x="32559.0" y="16638.0" >
		</node>
		<node id="101137" x="32389.0" y="16595.0" >
		</node>
		<node id="101138" x="32190.0" y="16534.0" >
		</node>
		<node id="101139" x="32087.0" y="16500.0" >
		</node>
		<node id="101140" x="32546.0" y="15815.0" >
		</node>
		<node id="101141" x="33023.0" y="16106.0" >
		</node>
		<node id="101142" x="33119.0" y="16113.0" >
		</node>
		<node id="101143" x="33251.0" y="16057.0" >
		</node>
		<node id="101144" x="32975.0" y="16238.0" >
		</node>
		<node id="101145" x="33244.0" y="15838.0" >
		</node>
		<node id="101146" x="33291.0" y="15889.0" >
		</node>
		<node id="101147" x="33496.0" y="15914.0" >
		</node>
		<node id="101148" x="33609.0" y="15917.0" >
		</node>
		<node id="101149" x="33752.0" y="16066.0" >
		</node>
		<node id="101150" x="33852.0" y="16169.0" >
		</node>
		<node id="101151" x="33800.0" y="16242.0" >
		</node>
		<node id="101152" x="33645.0" y="16194.0" >
		</node>
		<node id="101153" x="33549.0" y="16220.0" >
		</node>
		<node id="101154" x="33482.0" y="16310.0" >
		</node>
		<node id="101155" x="33370.0" y="16366.0" >
		</node>
		<node id="101156" x="33250.0" y="16428.0" >
		</node>
		<node id="101157" x="33184.0" y="16378.0" >
		</node>
		<node id="101158" x="33283.0" y="16288.0" >
		</node>
		<node id="101160" x="33689.0" y="16321.0" >
		</node>
		<node id="101161" x="33613.0" y="16342.0" >
		</node>
		<node id="101162" x="33526.0" y="16380.0" >
		</node>
		<node id="101163" x="33464.0" y="16410.0" >
		</node>
		<node id="101164" x="33416.0" y="16397.0" >
		</node>
		<node id="101165" x="33244.0" y="16549.0" >
		</node>
		<node id="101166" x="33208.0" y="16528.0" >
		</node>
		<node id="101167" x="33070.0" y="16547.0" >
		</node>
		<node id="101168" x="32970.0" y="16553.0" >
		</node>
		<node id="101169" x="33210.0" y="16664.0" >
		</node>
		<node id="101170" x="33235.0" y="16723.0" >
		</node>
		<node id="101171" x="33334.0" y="16717.0" >
		</node>
		<node id="101172" x="33307.0" y="16613.0" >
		</node>
		<node id="101173" x="33214.0" y="16599.0" >
		</node>
		<node id="101174" x="33078.0" y="16610.0" >
		</node>
		<node id="101175" x="32973.0" y="16626.0" >
		</node>
		<node id="101176" x="33094.0" y="16623.0" >
		</node>
		<node id="101178" x="33280.0" y="16579.0" >
		</node>
		<node id="101179" x="33567.0" y="16513.0" >
		</node>
		<node id="101180" x="33650.0" y="16489.0" >
		</node>
		<node id="101181" x="33637.0" y="16425.0" >
		</node>
		<node id="101182" x="33545.0" y="16450.0" >
		</node>
		<node id="101183" x="33457.0" y="16569.0" >
		</node>
		<node id="101184" x="33462.0" y="16666.0" >
		</node>
		<node id="101185" x="33910.0" y="16485.0" >
		</node>
		<node id="101186" x="33726.0" y="16469.0" >
		</node>
		<node id="101187" x="33515.0" y="16553.0" >
		</node>
		<node id="101188" x="33410.0" y="16591.0" >
		</node>
		<node id="101189" x="33560.0" y="16548.0" >
		</node>
		<node id="101190" x="33861.0" y="16459.0" >
		</node>
		<node id="101194" x="34332.0" y="16033.0" >
		</node>
		<node id="101195" x="34525.0" y="15920.0" >
		</node>
		<node id="101196" x="34752.0" y="15849.0" >
		</node>
		<node id="101197" x="35187.0" y="15634.0" >
		</node>
		<node id="101198" x="35223.0" y="15611.0" >
		</node>
		<node id="101199" x="34899.0" y="15740.0" >
		</node>
		<node id="101200" x="34767.0" y="15855.0" >
		</node>
		<node id="101201" x="34319.0" y="16025.0" >
		</node>
		<node id="101202" x="34247.0" y="16111.0" >
		</node>
		<node id="101203" x="34226.0" y="16131.0" >
		</node>
		<node id="101204" x="34185.0" y="16191.0" >
		</node>
		<node id="101205" x="34146.0" y="16231.0" >
		</node>
		<node id="101206" x="33915.0" y="16426.0" >
		</node>
		<node id="101207" x="33851.0" y="16454.0" >
		</node>
		<node id="101208" x="34027.0" y="16332.0" >
		</node>
		<node id="101209" x="33953.0" y="16384.0" >
		</node>
		<node id="101210" x="33907.0" y="16415.0" >
		</node>
		<node id="101211" x="33856.0" y="16441.0" >
		</node>
		<node id="101212" x="33919.0" y="16452.0" >
		</node>
		<node id="101214" x="34145.0" y="16302.0" >
		</node>
		<node id="101215" x="34199.0" y="16187.0" >
		</node>
		<node id="101216" x="34308.0" y="16067.0" >
		</node>
		<node id="101217" x="34348.0" y="16033.0" >
		</node>
		<node id="101218" x="34378.0" y="16015.0" >
		</node>
		<node id="101219" x="34434.0" y="16105.0" >
		</node>
		<node id="101220" x="34530.0" y="16060.0" >
		</node>
		<node id="101221" x="34505.0" y="15946.0" >
		</node>
		<node id="101222" x="34526.0" y="15934.0" >
		</node>
		<node id="101223" x="34560.0" y="16038.0" >
		</node>
		<node id="101224" x="34580.0" y="15916.0" >
		</node>
		<node id="101225" x="34629.0" y="15903.0" >
		</node>
		<node id="101226" x="34757.0" y="15870.0" >
		</node>
		<node id="101227" x="34846.0" y="15834.0" >
		</node>
		<node id="101228" x="34914.0" y="15794.0" >
		</node>
		<node id="101229" x="34965.0" y="15754.0" >
		</node>
		<node id="101230" x="34786.0" y="15929.0" >
		</node>
		<node id="101231" x="34580.0" y="16382.0" >
		</node>
		<node id="101232" x="34629.0" y="15885.0" >
		</node>
		<node id="101233" x="34442.0" y="15939.0" >
		</node>
		<node id="101234" x="34350.0" y="15974.0" >
		</node>
		<node id="101235" x="34323.0" y="16002.0" >
		</node>
		<node id="101236" x="34280.0" y="16045.0" >
		</node>
		<node id="101237" x="34235.0" y="15989.0" >
		</node>
		<node id="101238" x="34163.0" y="16084.0" >
		</node>
		<node id="101239" x="34121.0" y="16142.0" >
		</node>
		<node id="101240" x="34088.0" y="16185.0" >
		</node>
		<node id="101241" x="33992.0" y="16278.0" >
		</node>
		<node id="101242" x="33913.0" y="16324.0" >
		</node>
		<node id="101243" x="33825.0" y="16330.0" >
		</node>
		<node id="101244" x="33711.0" y="16406.0" >
		</node>
		<node id="101245" x="33835.0" y="16373.0" >
		</node>
		<node id="101249" x="33566.0" y="15720.0" >
		</node>
		<node id="101250" x="33975.0" y="15371.0" >
		</node>
		<node id="101251" x="33988.0" y="15214.0" >
		</node>
		<node id="101253" x="34404.0" y="15430.0" >
		</node>
		<node id="101254" x="34426.0" y="15439.0" >
		</node>
		<node id="101255" x="34481.0" y="15466.0" >
		</node>
		<node id="101256" x="34576.0" y="15564.0" >
		</node>
		<node id="101257" x="34623.0" y="15628.0" >
		</node>
		<node id="101258" x="34655.0" y="15682.0" >
		</node>
		<node id="101259" x="34807.0" y="15652.0" >
		</node>
		<node id="101260" x="34857.0" y="15707.0" >
		</node>
		<node id="101261" x="34885.0" y="15751.0" >
		</node>
		<node id="101262" x="34924.0" y="15758.0" >
		</node>
		<node id="101263" x="34912.0" y="15725.0" >
		</node>
		<node id="101264" x="34885.0" y="15697.0" >
		</node>
		<node id="101265" x="34842.0" y="15645.0" >
		</node>
		<node id="101266" x="34818.0" y="15615.0" >
		</node>
		<node id="101267" x="34912.0" y="15536.0" >
		</node>
		<node id="101268" x="35088.0" y="15474.0" >
		</node>
		<node id="101269" x="35135.0" y="15557.0" >
		</node>
		<node id="101270" x="35145.0" y="15607.0" >
		</node>
		<node id="101271" x="35011.0" y="15670.0" >
		</node>
		<node id="101272" x="34977.0" y="15622.0" >
		</node>
		<node id="101273" x="34804.0" y="15598.0" >
		</node>
		<node id="101274" x="34731.0" y="15564.0" >
		</node>
		<node id="101275" x="34691.0" y="15523.0" >
		</node>
		<node id="101276" x="34476.0" y="15415.0" >
		</node>
		<node id="101277" x="34428.0" y="15405.0" >
		</node>
		<node id="101278" x="34614.0" y="15571.0" >
		</node>
		<node id="101279" x="34777.0" y="15597.0" >
		</node>
		<node id="101280" x="34668.0" y="15654.0" >
		</node>
		<node id="101281" x="34601.0" y="15681.0" >
		</node>
		<node id="101282" x="34315.0" y="15708.0" >
		</node>
		<node id="101283" x="34194.0" y="15851.0" >
		</node>
		<node id="101284" x="34175.0" y="15881.0" >
		</node>
		<node id="101285" x="34064.0" y="16024.0" >
		</node>
		<node id="101286" x="34027.0" y="16071.0" >
		</node>
		<node id="101287" x="33984.0" y="16108.0" >
		</node>
		<node id="101288" x="33967.0" y="15561.0" >
		</node>
		<node id="101289" x="34022.0" y="15587.0" >
		</node>
		<node id="101290" x="34146.0" y="15562.0" >
		</node>
		<node id="101291" x="34358.0" y="15582.0" >
		</node>
		<node id="101292" x="34130.0" y="15714.0" >
		</node>
		<node id="101293" x="34062.0" y="15690.0" >
		</node>
		<node id="101294" x="34141.0" y="15775.0" >
		</node>
		<node id="101295" x="34103.0" y="15829.0" >
		</node>
		<node id="101296" x="33950.0" y="15888.0" >
		</node>
		<node id="101297" x="34294.0" y="15905.0" >
		</node>
		<node id="101298" x="34424.0" y="15870.0" >
		</node>
		<node id="101299" x="34604.0" y="15820.0" >
		</node>
		<node id="101300" x="34738.0" y="15772.0" >
		</node>
		<node id="101301" x="34671.0" y="15694.0" >
		</node>
		<node id="101302" x="34571.0" y="15728.0" >
		</node>
		<node id="101303" x="34401.0" y="15780.0" >
		</node>
		<node id="101304" x="35173.0" y="15463.0" >
		</node>
		<node id="101305" x="35231.0" y="15501.0" >
		</node>
		<node id="101306" x="35274.0" y="15499.0" >
		</node>
		<node id="101307" x="35204.0" y="15371.0" >
		</node>
		<node id="101308" x="35067.0" y="15274.0" >
		</node>
		<node id="101309" x="35239.0" y="15448.0" >
		</node>
		<node id="101310" x="35289.0" y="15452.0" >
		</node>
		<node id="101311" x="35399.0" y="15446.0" >
		</node>
		<node id="101312" x="35485.0" y="15428.0" >
		</node>
		<node id="101313" x="35550.0" y="15389.0" >
		</node>
		<node id="101314" x="35593.0" y="15423.0" >
		</node>
		<node id="101315" x="35724.0" y="15410.0" >
		</node>
		<node id="101316" x="36049.0" y="15433.0" >
		</node>
		<node id="101317" x="36197.0" y="15451.0" >
		</node>
		<node id="101318" x="36280.0" y="15458.0" >
		</node>
		<node id="101319" x="36387.0" y="15490.0" >
		</node>
		<node id="101320" x="36544.0" y="15539.0" >
		</node>
		<node id="101321" x="36703.0" y="15605.0" >
		</node>
		<node id="101322" x="36740.0" y="15620.0" >
		</node>
		<node id="101323" x="36865.0" y="15672.0" >
		</node>
		<node id="101324" x="36914.0" y="15691.0" >
		</node>
		<node id="101325" x="36945.0" y="15605.0" >
		</node>
		<node id="101326" x="36907.0" y="15576.0" >
		</node>
		<node id="101327" x="36973.0" y="15437.0" >
		</node>
		<node id="101328" x="36814.0" y="15349.0" >
		</node>
		<node id="101329" x="36725.0" y="15316.0" >
		</node>
		<node id="101330" x="36652.0" y="15285.0" >
		</node>
		<node id="101331" x="36604.0" y="15205.0" >
		</node>
		<node id="101332" x="36528.0" y="15094.0" >
		</node>
		<node id="101333" x="36365.0" y="15134.0" >
		</node>
		<node id="101334" x="35980.0" y="15064.0" >
		</node>
		<node id="101335" x="35797.0" y="15102.0" >
		</node>
		<node id="101336" x="35760.0" y="15130.0" >
		</node>
		<node id="101337" x="35671.0" y="15178.0" >
		</node>
		<node id="101338" x="35623.0" y="15205.0" >
		</node>
		<node id="101339" x="35578.0" y="15241.0" >
		</node>
		<node id="101340" x="35482.0" y="15320.0" >
		</node>
		<node id="101341" x="35426.0" y="15350.0" >
		</node>
		<node id="101342" x="34707.0" y="15258.0" >
		</node>
		<node id="101343" x="35269.0" y="15170.0" >
		</node>
		<node id="101344" x="35590.0" y="15365.0" >
		</node>
		<node id="101345" x="35618.0" y="15345.0" >
		</node>
		<node id="101346" x="35637.0" y="15330.0" >
		</node>
		<node id="101347" x="35683.0" y="15303.0" >
		</node>
		<node id="101348" x="35714.0" y="15288.0" >
		</node>
		<node id="101349" x="35720.0" y="15351.0" >
		</node>
		<node id="101350" x="35810.0" y="15295.0" >
		</node>
		<node id="101351" x="35847.0" y="15298.0" >
		</node>
		<node id="101352" x="35886.0" y="15302.0" >
		</node>
		<node id="101353" x="35971.0" y="15312.0" >
		</node>
		<node id="101354" x="36074.0" y="15325.0" >
		</node>
		<node id="101355" x="35983.0" y="15201.0" >
		</node>
		<node id="101356" x="36155.0" y="15325.0" >
		</node>
		<node id="101357" x="36227.0" y="15338.0" >
		</node>
		<node id="101358" x="36275.0" y="15353.0" >
		</node>
		<node id="101359" x="36317.0" y="15376.0" >
		</node>
		<node id="101360" x="36365.0" y="15398.0" >
		</node>
		<node id="101361" x="36417.0" y="15436.0" >
		</node>
		<node id="101362" x="36570.0" y="15465.0" >
		</node>
		<node id="101363" x="36696.0" y="15500.0" >
		</node>
		<node id="101364" x="36165.0" y="15283.0" >
		</node>
		<node id="101365" x="36232.0" y="15296.0" >
		</node>
		<node id="101366" x="36338.0" y="15334.0" >
		</node>
		<node id="101367" x="36523.0" y="15222.0" >
		</node>
		<node id="101368" x="36649.0" y="15237.0" >
		</node>
		<node id="101369" x="36727.0" y="15558.0" >
		</node>
		<node id="101370" x="36649.0" y="15778.0" >
		</node>
		<node id="101371" x="36610.0" y="15857.0" >
		</node>
		<node id="101372" x="36706.0" y="15883.0" >
		</node>
		<node id="101373" x="36779.0" y="16004.0" >
		</node>
		<node id="101374" x="36863.0" y="16071.0" >
		</node>
		<node id="101375" x="36918.0" y="16191.0" >
		</node>
		<node id="101376" x="36842.0" y="16015.0" >
		</node>
		<node id="101377" x="36823.0" y="15978.0" >
		</node>
		<node id="101378" x="36624.0" y="15853.0" >
		</node>
		<node id="101379" x="36655.0" y="15784.0" >
		</node>
		<node id="101380" x="36733.0" y="15562.0" >
		</node>
		<node id="101381" x="36721.0" y="15497.0" >
		</node>
		<node id="101382" x="36669.0" y="15237.0" >
		</node>
		<node id="101383" x="36602.0" y="15130.0" >
		</node>
		<node id="101384" x="36561.0" y="15086.0" >
		</node>
		<node id="101385" x="36560.0" y="14863.0" >
		</node>
		<node id="101386" x="36587.0" y="14868.0" >
		</node>
		<node id="101387" x="36730.0" y="15422.0" >
		</node>
		<node id="101388" x="36728.0" y="15379.0" >
		</node>
		<node id="101389" x="36690.0" y="15337.0" >
		</node>
		<node id="101390" x="36691.0" y="15373.0" >
		</node>
		<node id="101391" x="36711.0" y="15598.0" >
		</node>
		<node id="101392" x="36618.0" y="15781.0" >
		</node>
		<node id="101393" x="36446.0" y="15715.0" >
		</node>
		<node id="101394" x="36653.0" y="15876.0" >
		</node>
		<node id="101395" x="36735.0" y="15909.0" >
		</node>
		<node id="101397" x="36804.0" y="15858.0" >
		</node>
		<node id="101398" x="36794.0" y="15836.0" >
		</node>
		<node id="101399" x="36666.0" y="15775.0" >
		</node>
		<node id="101400" x="36677.0" y="15748.0" >
		</node>
		<node id="101401" x="36685.0" y="15725.0" >
		</node>
		<node id="101402" x="36706.0" y="15678.0" >
		</node>
		<node id="101403" x="36685.0" y="15669.0" >
		</node>
		<node id="101404" x="36664.0" y="15710.0" >
		</node>
		<node id="101405" x="36640.0" y="15757.0" >
		</node>
		<node id="101406" x="36546.0" y="15727.0" >
		</node>
		<node id="101407" x="36513.0" y="15714.0" >
		</node>
		<node id="101408" x="36516.0" y="15695.0" >
		</node>
		<node id="101409" x="36528.0" y="15663.0" >
		</node>
		<node id="101410" x="36541.0" y="15610.0" >
		</node>
		<node id="101411" x="36517.0" y="15658.0" >
		</node>
		<node id="101412" x="36503.0" y="15690.0" >
		</node>
		<node id="101413" x="36486.0" y="15704.0" >
		</node>
		<node id="101414" x="36536.0" y="15638.0" >
		</node>
		<node id="101415" x="36339.0" y="15655.0" >
		</node>
		<node id="101416" x="36243.0" y="15629.0" >
		</node>
		<node id="101417" x="36039.0" y="15601.0" >
		</node>
		<node id="101418" x="36023.0" y="15601.0" >
		</node>
		<node id="101419" x="35875.0" y="15586.0" >
		</node>
		<node id="101420" x="35740.0" y="15577.0" >
		</node>
		<node id="101421" x="35608.0" y="15593.0" >
		</node>
		<node id="101423" x="35452.0" y="15553.0" >
		</node>
		<node id="101424" x="35602.0" y="15542.0" >
		</node>
		<node id="101425" x="35733.0" y="15529.0" >
		</node>
		<node id="101426" x="35882.0" y="15533.0" >
		</node>
		<node id="101427" x="36030.0" y="15552.0" >
		</node>
		<node id="101428" x="36025.0" y="15587.0" >
		</node>
		<node id="101429" x="36046.0" y="15553.0" >
		</node>
		<node id="101430" x="36248.0" y="15573.0" >
		</node>
		<node id="101431" x="36353.0" y="15608.0" >
		</node>
		<node id="101432" x="36367.0" y="15556.0" >
		</node>
		<node id="101433" x="36257.0" y="15523.0" >
		</node>
		<node id="101434" x="36044.0" y="15498.0" >
		</node>
		<node id="101435" x="35892.0" y="15483.0" >
		</node>
		<node id="101436" x="35730.0" y="15471.0" >
		</node>
		<node id="101437" x="35599.0" y="15488.0" >
		</node>
		<node id="101438" x="35422.0" y="15500.0" >
		</node>
		<node id="101439" x="35464.0" y="15620.0" >
		</node>
		<node id="101440" x="35378.0" y="15638.0" >
		</node>
		<node id="101441" x="35281.0" y="15643.0" >
		</node>
		<node id="101442" x="35404.0" y="15762.0" >
		</node>
		<node id="101443" x="35515.0" y="15773.0" >
		</node>
		<node id="101444" x="35416.0" y="15683.0" >
		</node>
		<node id="101445" x="35390.0" y="15655.0" >
		</node>
		<node id="101446" x="35608.0" y="15629.0" >
		</node>
		<node id="101447" x="35772.0" y="15606.0" >
		</node>
		<node id="101448" x="35952.0" y="15620.0" >
		</node>
		<node id="101449" x="36007.0" y="15658.0" >
		</node>
		<node id="101450" x="36016.0" y="15755.0" >
		</node>
		<node id="101451" x="36040.0" y="15660.0" >
		</node>
		<node id="101452" x="36061.0" y="15641.0" >
		</node>
		<node id="101453" x="36323.0" y="15698.0" >
		</node>
		<node id="101454" x="36454.0" y="15761.0" >
		</node>
		<node id="101455" x="36507.0" y="15799.0" >
		</node>
		<node id="101456" x="36579.0" y="15854.0" >
		</node>
		<node id="101457" x="36268.0" y="15656.0" >
		</node>
		<node id="101458" x="36763.0" y="15903.0" >
		</node>
		<node id="101459" x="36470.0" y="15730.0" >
		</node>
		<node id="101460" x="36301.0" y="15659.0" >
		</node>
		<node id="101461" x="36214.0" y="15639.0" >
		</node>
		<node id="101462" x="36002.0" y="15612.0" >
		</node>
		<node id="101463" x="35523.0" y="15620.0" >
		</node>
		<node id="101464" x="35626.0" y="15702.0" >
		</node>
		<node id="101465" x="35629.0" y="15757.0" >
		</node>
		<node id="101466" x="35718.0" y="15737.0" >
		</node>
		<node id="101467" x="35709.0" y="15850.0" >
		</node>
		<node id="101468" x="35998.0" y="15873.0" >
		</node>
		<node id="101469" x="36016.0" y="15846.0" >
		</node>
		<node id="101470" x="36011.0" y="15810.0" >
		</node>
		<node id="101471" x="35994.0" y="15831.0" >
		</node>
		<node id="101472" x="36236.0" y="15671.0" >
		</node>
		<node id="101473" x="36228.0" y="15774.0" >
		</node>
		<node id="101474" x="36303.0" y="15782.0" >
		</node>
		<node id="101475" x="36259.0" y="15900.0" >
		</node>
		<node id="101476" x="36411.0" y="15949.0" >
		</node>
		<node id="101477" x="36465.0" y="15969.0" >
		</node>
		<node id="101478" x="36558.0" y="15999.0" >
		</node>
		<node id="101479" x="36554.0" y="15866.0" >
		</node>
		<node id="101480" x="36719.0" y="15570.0" >
		</node>
		<node id="101481" x="36628.0" y="15927.0" >
		</node>
		<node id="101482" x="36812.0" y="15944.0" >
		</node>
		<node id="101483" x="36953.0" y="15994.0" >
		</node>
		<node id="101484" x="37195.0" y="16075.0" >
		</node>
		<node id="101485" x="37217.0" y="16005.0" >
		</node>
		<node id="101486" x="37159.0" y="15978.0" >
		</node>
		<node id="101487" x="37082.0" y="15952.0" >
		</node>
		<node id="101488" x="37017.0" y="15934.0" >
		</node>
		<node id="101489" x="36923.0" y="15909.0" >
		</node>
		<node id="101490" x="36969.0" y="15804.0" >
		</node>
		<node id="101491" x="36819.0" y="15780.0" >
		</node>
		<node id="101492" x="36841.0" y="15728.0" >
		</node>
		<node id="101493" x="36971.0" y="15753.0" >
		</node>
		<node id="101494" x="35912.0" y="15361.0" >
		</node>
		<node id="101495" x="36057.0" y="15373.0" >
		</node>
		<node id="101496" x="36175.0" y="15385.0" >
		</node>
		<node id="101497" x="36202.0" y="15409.0" >
		</node>
		<node id="101498" x="36244.0" y="15431.0" >
		</node>
		<node id="101499" x="37029.0" y="15696.0" >
		</node>
		<node id="101500" x="37181.0" y="15663.0" >
		</node>
		<node id="101501" x="37244.0" y="15648.0" >
		</node>
		<node id="101502" x="37381.0" y="15632.0" >
		</node>
		<node id="101503" x="37460.0" y="15679.0" >
		</node>
		<node id="101515" x="37977.0" y="15793.0" >
		</node>
		<node id="101516" x="38086.0" y="15338.0" >
		</node>
		<node id="101517" x="38027.0" y="15169.0" >
		</node>
		<node id="101518" x="37769.0" y="15331.0" >
		</node>
		<node id="101519" x="37839.0" y="14982.0" >
		</node>
		<node id="101520" x="37844.0" y="15614.0" >
		</node>
		<node id="101521" x="37626.0" y="15520.0" >
		</node>
		<node id="101522" x="37588.0" y="15574.0" >
		</node>
		<node id="101523" x="37524.0" y="15654.0" >
		</node>
		<node id="101524" x="37289.0" y="15772.0" >
		</node>
		<node id="101525" x="37251.0" y="15889.0" >
		</node>
		<node id="101526" x="37196.0" y="15871.0" >
		</node>
		<node id="101527" x="37126.0" y="15844.0" >
		</node>
		<node id="101528" x="37170.0" y="15731.0" >
		</node>
		<node id="101529" x="37324.0" y="15684.0" >
		</node>
		<node id="101530" x="37386.0" y="15669.0" >
		</node>
		<node id="101531" x="37570.0" y="15557.0" >
		</node>
		<node id="101532" x="37459.0" y="15528.0" >
		</node>
		<node id="101533" x="37378.0" y="15597.0" >
		</node>
		<node id="101534" x="37217.0" y="15568.0" >
		</node>
		<node id="101535" x="37235.0" y="15621.0" >
		</node>
		<node id="101536" x="37216.0" y="15438.0" >
		</node>
		<node id="101537" x="37134.0" y="15360.0" >
		</node>
		<node id="101538" x="37110.0" y="15082.0" >
		</node>
		<node id="101539" x="36968.0" y="15009.0" >
		</node>
		<node id="101540" x="37075.0" y="14620.0" >
		</node>
		<node id="101541" x="36912.0" y="14566.0" >
		</node>
		<node id="101542" x="36447.0" y="14381.0" >
		</node>
		<node id="101543" x="37097.0" y="13896.0" >
		</node>
		<node id="101544" x="37049.0" y="14103.0" >
		</node>
		<node id="101546" x="35094.0" y="14492.0" >
		</node>
		<node id="101561" x="37297.0" y="16121.0" >
		</node>
		<node id="101562" x="37232.0" y="16064.0" >
		</node>
		<node id="101563" x="37071.0" y="15995.0" >
		</node>
		<node id="101565" x="37157.0" y="16023.0" >
		</node>
		<node id="101566" x="37054.0" y="15969.0" >
		</node>
		<node id="101567" x="36946.0" y="15929.0" >
		</node>
		<node id="101568" x="36667.0" y="15898.0" >
		</node>
		<node id="101569" x="37093.0" y="16040.0" >
		</node>
		<node id="101570" x="37242.0" y="16127.0" >
		</node>
		<node id="101587" x="37328.0" y="15621.0" >
		</node>
		<node id="101599" x="36454.0" y="15836.0" >
		</node>
		<node id="101601" x="31533.0" y="16163.0" >
		</node>
		<node id="101602" x="31604.0" y="16173.0" >
		</node>
		<node id="101603" x="31839.0" y="16385.0" >
		</node>
		<node id="101605" x="33654.0" y="16115.0" >
		</node>
		<node id="101606" x="33815.0" y="15967.0" >
		</node>
		<node id="101607" x="33813.0" y="15744.0" >
		</node>
		<node id="101608" x="34009.0" y="15955.0" >
		</node>
		<node id="101609" x="37678.0" y="15528.0" >
		</node>
		<node id="101611" x="37096.0" y="15707.0" >
		</node>
		<node id="101612" x="37073.0" y="15756.0" >
		</node>
		<node id="101613" x="36116.0" y="15081.0" >
		</node>
		<node id="101614" x="34510.0" y="15844.0" >
		</node>
		<node id="101615" x="34100.0" y="15976.0" >
		</node>
		<node id="101616" x="33096.0" y="16375.0" >
		</node>
		<node id="101617" x="32054.0" y="16342.0" >
		</node>
		<node id="101618" x="33625.0" y="15899.0" >
		</node>
		<node id="101619" x="32204.0" y="16247.0" >
		</node>
		<node id="101620" x="33700.0" y="16359.0" >
		</node>
		<node id="101621" x="34084.0" y="15291.0" >
		</node>
		<node id="101622" x="33061.0" y="16187.0" >
		</node>
		<node id="101623" x="32618.0" y="16120.0" >
		</node>
		<node id="101624" x="33909.0" y="15478.0" >
		</node>
		<node id="101625" x="33896.0" y="15901.0" >
		</node>
		<node id="101626" x="32981.0" y="16262.0" >
		</node>
		<node id="101627" x="34330.0" y="16167.0" >
		</node>
		<node id="101628" x="34232.0" y="16219.0" >
		</node>
		<node id="101629" x="31363.0" y="16202.0" >
		</node>
		<node id="101630" x="31516.0" y="16336.0" >
		</node>
		<node id="101631" x="31563.0" y="16383.0" >
		</node>
		<node id="101632" x="31733.0" y="16513.0" >
		</node>
		<node id="101633" x="31730.0" y="16540.0" >
		</node>
		<node id="101634" x="31759.0" y="16496.0" >
		</node>
		<node id="101635" x="32159.0" y="16540.0" >
		</node>
		<node id="101636" x="32205.0" y="16560.0" >
		</node>
		<node id="101637" x="32234.0" y="16570.0" >
		</node>
		<node id="101638" x="32378.0" y="16626.0" >
		</node>
		<node id="101639" x="32487.0" y="16656.0" >
		</node>
		<node id="101640" x="32654.0" y="16758.0" >
		</node>
		<node id="101641" x="32855.0" y="16725.0" >