<?xml version="1.0" encoding="UTF-8"?>
<!DOCTYPE network SYSTEM "http://www.matsim.org/files/dtd/network_v2.dtd">
<network>

<!-- ====================================================================== -->

	<nodes>
		<node id="1" x="50000.0" y="510000.0" >
		</node>
		<node id="10" x="220000.0" y="320000.0" >
		</node>
		<node id="11" x="130000.0" y="320000.0" >
		</node>
		<node id="12" x="50000.0" y="320000.0" >
		</node>
		<node id="13" x="50000.0" y="50000.0" >
		</node>
		<node id="14" x="130000.0" y="190000.0" >
		</node>
		<node id="15" x="220000.0" y="190000.0" >
		</node>
		<node id="16" x="320000.0" y="320000.0" >
		</node>
		<node id="17" x="320000.0" y="260000.0" >
		</node>
		<node id="18" x="420000.0" y="320000.0" >
		</node>
		<node id="18D" x="420100.0" y="320100.0" >
		</node>
		<node id="19" x="320000.0" y="190000.0" >
		</node>
		<node id="2" x="320000.0" y="510000.0" >
		</node>
		<node id="20" x="320000.0" y="50000.0" >
		</node>
		<node id="20D" x="320100.0" y="50100.0" >
		</node>
		<node id="21" x="220000.0" y="50000.0" >
		</node>
		<node id="22" x="220000.0" y="130000.0" >
		</node>
		<node id="23" x="130000.0" y="130000.0" >
		</node>
		<node id="24" x="130000.0" y="50000.0" >
		</node>
		<node id="3" x="50000.0" y="440000.0" >
		</node>
		<node id="4" x="130000.0" y="440000.0" >
		</node>
		<node id="5" x="220000.0" y="440000.0" >
		</node>
		<node id="6" x="320000.0" y="440000.0" >
		</node>
		<node id="6D" x="320100.0" y="440100.0" >
		</node>
		<node id="7" x="420000.0" y="380000.0" >
		</node>
		<node id="7D" x="420100.0" y="380100.0" >
		</node>
		<node id="8" x="320000.0" y="380000.0" >
		</node>
		<node id="9" x="220000.0" y="380000.0" >
		</node>
		<node id="O1" x="50100.0" y="510100.0" >
		</node>
		<node id="O13" x="50100.0" y="50100.0" >
		</node>
		<node id="O2" x="320100.0" y="510100.0" >
		</node>
		<node id="O3" x="50100.0" y="440100.0" >
		</node>
	</nodes>

<!-- ====================================================================== -->

	<links capperiod="01:00:00" effectivecellsize="7.5" effectivelanewidth="3.75">
		<link id="10_11" from="10" to="11" length="90000.0" freespeed="1.0" capacity="10000.0" permlanes="1.0" oneway="1" modes="car" >
		</link>
		<link id="10_15" from="10" to="15" length="130000.0" freespeed="1.0" capacity="13512.00155" permlanes="1.0" oneway="1" modes="car" >
		</link>
		<link id="10_16" from="10" to="16" length="100000.0" freespeed="1.0" capacity="4854.917717" permlanes="1.0" oneway="1" modes="car" >
		</link>
		<link id="10_17" from="10" to="17" length="116619.03789690601" freespeed="1.0" capacity="4993.510694" permlanes="1.0" oneway="1" modes="car" >
		</link>
		<link id="10_9" from="10" to="9" length="60000.0" freespeed="1.0" capacity="13915.78842" permlanes="1.0" oneway="1" modes="car" >
		</link>
		<link id="11_10" from="11" to="10" length="90000.0" freespeed="1.0" capacity="10000.0" permlanes="1.0" oneway="1" modes="car" >
		</link>
		<link id="11_12" from="11" to="12" length="80000.0" freespeed="1.0" capacity="4908.82673" permlanes="1.0" oneway="1" modes="car" >
		</link>
		<link id="11_14" from="11" to="14" length="130000.0" freespeed="1.0" capacity="4876.508287" permlanes="1.0" oneway="1" modes="car" >
		</link>
		<link id="11_4" from="11" to="4" length="120000.0" freespeed="1.0" capacity="4908.82673" permlanes="1.0" oneway="1" modes="car" >
		</link>
		<link id="12_11" from="12" to="11" length="80000.0" freespeed="1.0" capacity="4908.82673" permlanes="1.0" oneway="1" modes="car" >
		</link>
		<link id="12_13" from="12" to="13" length="270000.0" freespeed="1.0" capacity="25900.20064" permlanes="1.0" oneway="1" modes="car" >
		</link>
		<link id="12_3" from="12" to="3" length="120000.0" freespeed="1.0" capacity="23403.47319" permlanes="1.0" oneway="1" modes="car" >
		</link>
		<link id="13_12" from="13" to="12" length="270000.0" freespeed="1.0" capacity="25900.20064" permlanes="1.0" oneway="1" modes="car" >
		</link>
		<link id="13_24" from="13" to="24" length="80000.0" freespeed="1.0" capacity="5091.256152" permlanes="1.0" oneway="1" modes="car" >
		</link>
		<link id="14_11" from="14" to="11" length="130000.0" freespeed="1.0" capacity="4876.508287" permlanes="1.0" oneway="1" modes="car" >
		</link>
		<link id="14_15" from="14" to="15" length="90000.0" freespeed="1.0" capacity="5127.526119" permlanes="1.0" oneway="1" modes="car" >
		</link>
		<link id="14_23" from="14" to="23" length="60000.0" freespeed="1.0" capacity="4924.790605" permlanes="1.0" oneway="1" modes="car" >
		</link>
		<link id="15_10" from="15" to="10" length="130000.0" freespeed="1.0" capacity="13512.00155" permlanes="1.0" oneway="1" modes="car" >
		</link>
		<link id="15_14" from="15" to="14" length="90000.0" freespeed="1.0" capacity="5127.526119" permlanes="1.0" oneway="1" modes="car" >
		</link>
		<link id="15_19" from="15" to="19" length="100000.0" freespeed="1.0" capacity="14564.75315" permlanes="1.0" oneway="1" modes="car" >
		</link>
		<link id="15_22" from="15" to="22" length="60000.0" freespeed="1.0" capacity="9599.180565" permlanes="1.0" oneway="1" modes="car" >
		</link>
		<link id="16_10" from="16" to="10" length="100000.0" freespeed="1.0" capacity="4854.917717" permlanes="1.0" oneway="1" modes="car" >
		</link>
		<link id="16_17" from="16" to="17" length="60000.0" freespeed="1.0" capacity="5229.910063" permlanes="1.0" oneway="1" modes="car" >
		</link>
		<link id="16_18" from="16" to="18" length="100000.0" freespeed="1.0" capacity="19679.89671" permlanes="1.0" oneway="1" modes="car" >
		</link>
		<link id="16_8" from="16" to="8" length="60000.0" freespeed="1.0" capacity="5045.822583" permlanes="1.0" oneway="1" modes="car" >
		</link>
		<link id="17_10" from="17" to="10" length="116619.03789690601" freespeed="1.0" capacity="4993.510694" permlanes="1.0" oneway="1" modes="car" >
		</link>
		<link id="17_16" from="17" to="16" length="60000.0" freespeed="1.0" capacity="5229.910063" permlanes="1.0" oneway="1" modes="car" >
		</link>
		<link id="17_19" from="17" to="19" length="70000.0" freespeed="1.0" capacity="4823.950831" permlanes="1.0" oneway="1" modes="car" >
		</link>
		<link id="18_16" from="18" to="16" length="100000.0" freespeed="1.0" capacity="19679.89671" permlanes="1.0" oneway="1" modes="car" >
		</link>
		<link id="18_18D" from="18" to="18D" length="141.4213562373095" freespeed="1.0" capacity="1.0" permlanes="1.0" oneway="1" modes="car" >
		</link>
		<link id="18_20" from="18" to="20" length="287923.6009777594" freespeed="1.0" capacity="23403.47319" permlanes="1.0" oneway="1" modes="car" >
		</link>
		<link id="18_7" from="18" to="7" length="60000.0" freespeed="1.0" capacity="23403.47319" permlanes="1.0" oneway="1" modes="car" >
		</link>
		<link id="19_15" from="19" to="15" length="100000.0" freespeed="1.0" capacity="14564.75315" permlanes="1.0" oneway="1" modes="car" >
		</link>
		<link id="19_17" from="19" to="17" length="70000.0" freespeed="1.0" capacity="4823.950831" permlanes="1.0" oneway="1" modes="car" >
		</link>
		<link id="19_20" from="19" to="20" length="140000.0" freespeed="1.0" capacity="5002.607563" permlanes="1.0" oneway="1" modes="car" >
		</link>
		<link id="1_2" from="1" to="2" length="270000.0" freespeed="1.0" capacity="25900.20064" permlanes="1.0" oneway="1" modes="car" >
		</link>
		<link id="1_3" from="1" to="3" length="70000.0" freespeed="1.0" capacity="23403.47319" permlanes="1.0" oneway="1" modes="car" >
		</link>
		<link id="20_18" from="20" to="18" length="287923.6009777594" freespeed="1.0" capacity="23403.47319" permlanes="1.0" oneway="1" modes="car" >
		</link>
		<link id="20_19" from="20" to="19" length="140000.0" freespeed="1.0" capacity="5002.607563" permlanes="1.0" oneway="1" modes="car" >
		</link>
		<link id="20_20D" from="20" to="20D" length="141.4213562373095" freespeed="1.0" capacity="1.0" permlanes="1.0" oneway="1" modes="car" >
		</link>
		<link id="20_21" from="20" to="21" length="100000.0" freespeed="1.0" capacity="5059.91234" permlanes="1.0" oneway="1" modes="car" >
		</link>
		<link id="20_22" from="20" to="22" length="128062.48474865698" freespeed="1.0" capacity="5075.697193" permlanes="1.0" oneway="1" modes="car" >
		</link>
		<link id="21_20" from="21" to="20" length="100000.0" freespeed="1.0" capacity="5059.91234" permlanes="1.0" oneway="1" modes="car" >
		</link>
		<link id="21_22" from="21" to="22" length="80000.0" freespeed="1.0" capacity="5229.910063" permlanes="1.0" oneway="1" modes="car" >
		</link>
		<link id="21_24" from="21" to="24" length="90000.0" freespeed="1.0" capacity="4885.357564" permlanes="1.0" oneway="1" modes="car" >
		</link>
		<link id="22_15" from="22" to="15" length="60000.0" freespeed="1.0" capacity="9599.180565" permlanes="1.0" oneway="1" modes="car" >
		</link>
		<link id="22_20" from="22" to="20" length="128062.48474865698" freespeed="1.0" capacity="5075.697193" permlanes="1.0" oneway="1" modes="car" >
		</link>
		<link id="22_21" from="22" to="21" length="80000.0" freespeed="1.0" capacity="5229.910063" permlanes="1.0" oneway="1" modes="car" >
		</link>
		<link id="22_23" from="22" to="23" length="90000.0" freespeed="1.0" capacity="5000.0" permlanes="1.0" oneway="1" modes="car" >
		</link>
		<link id="23_14" from="23" to="14" length="60000.0" freespeed="1.0" capacity="4924.790605" permlanes="1.0" oneway="1" modes="car" >
		</link>
		<link id="23_22" from="23" to="22" length="90000.0" freespeed="1.0" capacity="5000.0" permlanes="1.0" oneway="1" modes="car" >
		</link>
		<link id="23_24" from="23" to="24" length="80000.0" freespeed="1.0" capacity="5078.508436" permlanes="1.0" oneway="1" modes="car" >
		</link>
		<link id="24_13" from="24" to="13" length="80000.0" freespeed="1.0" capacity="5091.256152" permlanes="1.0" oneway="1" modes="car" >
		</link>
		<link id="24_21" from="24" to="21" length="90000.0" freespeed="1.0" capacity="4885.357564" permlanes="1.0" oneway="1" modes="car" >
		</link>
		<link id="24_23" from="24" to="23" length="80000.0" freespeed="1.0" capacity="5078.508436" permlanes="1.0" oneway="1" modes="car" >
		</link>
		<link id="2_1" from="2" to="1" length="270000.0" freespeed="1.0" capacity="25900.20064" permlanes="1.0" oneway="1" modes="car" >
		</link>
		<link id="2_6" from="2" to="6" length="70000.0" freespeed="1.0" capacity="4958.180928" permlanes="1.0" oneway="1" modes="car" >
		</link>
		<link id="3_1" from="3" to="1" length="70000.0" freespeed="1.0" capacity="23403.47319" permlanes="1.0" oneway="1" modes="car" >
		</link>
		<link id="3_12" from="3" to="12" length="120000.0" freespeed="1.0" capacity="23403.47319" permlanes="1.0" oneway="1" modes="car" >
		</link>
		<link id="3_4" from="3" to="4" length="80000.0" freespeed="1.0" capacity="17110.52372" permlanes="1.0" oneway="1" modes="car" >
		</link>
		<link id="4_11" from="4" to="11" length="120000.0" freespeed="1.0" capacity="4908.82673" permlanes="1.0" oneway="1" modes="car" >
		</link>
		<link id="4_3" from="4" to="3" length="80000.0" freespeed="1.0" capacity="17110.52372" permlanes="1.0" oneway="1" modes="car" >
		</link>
		<link id="4_5" from="4" to="5" length="90000.0" freespeed="1.0" capacity="17782.7941" permlanes="1.0" oneway="1" modes="car" >
		</link>
		<link id="5_4" from="5" to="4" length="90000.0" freespeed="1.0" capacity="17782.7941" permlanes="1.0" oneway="1" modes="car" >
		</link>
		<link id="5_6" from="5" to="6" length="100000.0" freespeed="1.0" capacity="4947.995469" permlanes="1.0" oneway="1" modes="car" >
		</link>
		<link id="5_9" from="5" to="9" length="60000.0" freespeed="1.0" capacity="10000.0" permlanes="1.0" oneway="1" modes="car" >
		</link>
		<link id="6_2" from="6" to="2" length="70000.0" freespeed="1.0" capacity="4958.180928" permlanes="1.0" oneway="1" modes="car" >
		</link>
		<link id="6_5" from="6" to="5" length="100000.0" freespeed="1.0" capacity="4947.995469" permlanes="1.0" oneway="1" modes="car" >
		</link>
		<link id="6_6D" from="6" to="6D" length="141.4213562373095" freespeed="1.0" capacity="1.0" permlanes="1.0" oneway="1" modes="car" >
		</link>
		<link id="6_8" from="6" to="8" length="60000.0" freespeed="1.0" capacity="4898.587646" permlanes="1.0" oneway="1" modes="car" >
		</link>
		<link id="7_18" from="7" to="18" length="60000.0" freespeed="1.0" capacity="23403.47319" permlanes="1.0" oneway="1" modes="car" >
		</link>
		<link id="7_7D" from="7" to="7D" length="141.4213562373095" freespeed="1.0" capacity="1.0" permlanes="1.0" oneway="1" modes="car" >
		</link>
		<link id="7_8" from="7" to="8" length="100000.0" freespeed="1.0" capacity="7841.81131" permlanes="1.0" oneway="1" modes="car" >
		</link>
		<link id="8_16" from="8" to="16" length="60000.0" freespeed="1.0" capacity="5045.822583" permlanes="1.0" oneway="1" modes="car" >
		</link>
		<link id="8_6" from="8" to="6" length="60000.0" freespeed="1.0" capacity="4898.587646" permlanes="1.0" oneway="1" modes="car" >
		</link>
		<link id="8_7" from="8" to="7" length="100000.0" freespeed="1.0" capacity="7841.81131" permlanes="1.0" oneway="1" modes="car" >
		</link>
		<link id="8_9" from="8" to="9" length="100000.0" freespeed="1.0" capacity="5050.193156" permlanes="1.0" oneway="1" modes="car" >
		</link>
		<link id="9_10" from="9" to="10" length="60000.0" freespeed="1.0" capacity="13915.78842" permlanes="1.0" oneway="1" modes="car" >
		</link>
		<link id="9_5" from="9" to="5" length="60000.0" freespeed="1.0" capacity="10000.0" permlanes="1.0" oneway="1" modes="car" >
		</link>
		<link id="9_8" from="9" to="8" length="100000.0" freespeed="1.0" capacity="5050.193156" permlanes="1.0" oneway="1" modes="car" >
		</link>
		<link id="O13_13" from="O13" to="13" length="141.4213562373095" freespeed="1.0" capacity="1.0" permlanes="1.0" oneway="1" modes="car" >
		</link>
		<link id="O1_1" from="O1" to="1" length="141.4213562373095" freespeed="1.0" capacity="1.0" permlanes="1.0" oneway="1" modes="car" >
		</link>
		<link id="O2_2" from="O2" to="2" length="141.4213562373095" freespeed="1.0" capacity="1.0" permlanes="1.0" oneway="1" modes="car" >
		</link>
		<link id="O3_3" from="O3" to="3" length="141.4213562373095" freespeed="1.0" capacity="1.0" permlanes="1.0" oneway="1" modes="car" >
		</link>
	</links>

<!-- ====================================================================== -->

</network>
