<?xml version="1.0" encoding="UTF-8"?>
<!DOCTYPE network SYSTEM "http://www.matsim.org/files/dtd/network_v2.dtd">
<network>

<!-- ====================================================================== -->

	<nodes>
		<node id="1" x="679902.809" y="4831282.126" >
		</node>
		<node id="10" x="683253.394" y="4823864.181" >
		</node>
		<node id="11" x="682012.485" y="4823703.704" >
		</node>
		<node id="12" x="679323.104" y="4823610.23" >
		</node>
		<node id="13" x="678410.332" y="4817669.497" >
		</node>
		<node id="14" x="681718.13" y="4822048.064" >
		</node>
		<node id="15" x="683296.19" y="4822101.493" >
		</node>
		<node id="16" x="684869.184" y="4824072.16" >
		</node>
		<node id="17" x="684885.889" y="4823465.363" >
		</node>
		<node id="18" x="686267.05" y="4824110.792" >
		</node>
		<node id="18D" x="686367.05" y="4824210.792" >
		</node>
		<node id="19" x="684926.921" y="4822167.306" >
		</node>
		<node id="2" x="684699.042" y="4830632.937" >
		</node>
		<node id="20" x="684981.095" y="4820584.086" >
		</node>
		<node id="20D" x="685081.095" y="4820684.086" >
		</node>
		<node id="21" x="683395.879" y="4820001.772" >
		</node>
		<node id="22" x="683361.439" y="4820486.881" >
		</node>
		<node id="23" x="681772.119" y="4820443.718" >
		</node>
		<node id="24" x="681945.002" y="4819148.679" >
		</node>
		<node id="3" x="679708.059" y="4826846.001" >
		</node>
		<node id="4" x="681927.239" y="4825871.274" >
		</node>
		<node id="5" x="683185.93" y="4825947.744" >
		</node>
		<node id="6" x="684723.084" y="4828607.642" >
		</node>
		<node id="6D" x="684823.084" y="4828707.642" >
		</node>
		<node id="7" x="686267.292" y="4826011.451" >
		</node>
		<node id="7D" x="686367.292" y="4826111.451" >
		</node>
		<node id="8" x="684821.536" y="4825802.554" >
		</node>
		<node id="9" x="683259.199" y="4824233.952" >
		</node>
		<node id="O1" x="680002.809" y="4831382.126" >
		</node>
		<node id="O13" x="678510.332" y="4817769.497" >
		</node>
		<node id="O2" x="684799.042" y="4830732.937" >
		</node>
		<node id="O3" x="679808.059" y="4826946.001" >
		</node>
	</nodes>

<!-- ====================================================================== -->

	<links capperiod="01:00:00" effectivecellsize="7.5" effectivelanewidth="3.75">
		<link id="10_11" from="10" to="11" length="200.0" freespeed="6.944444444444445" capacity="3600.0" permlanes="2.0" oneway="1" modes="car" >
		</link>
		<link id="10_15" from="10" to="15" length="200.0" freespeed="6.944444444444445" capacity="3600.0" permlanes="2.0" oneway="1" modes="car" >
		</link>
		<link id="10_16" from="10" to="16" length="200.0" freespeed="6.944444444444445" capacity="3600.0" permlanes="2.0" oneway="1" modes="car" >
		</link>
		<link id="10_17" from="10" to="17" length="200.0" freespeed="6.944444444444445" capacity="3600.0" permlanes="2.0" oneway="1" modes="car" >
		</link>
		<link id="10_9" from="10" to="9" length="200.0" freespeed="6.944444444444445" capacity="3600.0" permlanes="2.0" oneway="1" modes="car" >
		</link>
		<link id="11_10" from="11" to="10" length="1700.0" freespeed="6.944444444444445" capacity="3600.0" permlanes="2.0" oneway="1" modes="car" >
		</link>
		<link id="11_12" from="11" to="12" length="1700.0" freespeed="6.944444444444445" capacity="3600.0" permlanes="2.0" oneway="1" modes="car" >
		</link>
		<link id="11_14" from="11" to="14" length="1700.0" freespeed="6.944444444444445" capacity="3600.0" permlanes="2.0" oneway="1" modes="car" >
		</link>
		<link id="11_4" from="11" to="4" length="1700.0" freespeed="6.944444444444445" capacity="3600.0" permlanes="2.0" oneway="1" modes="car" >
		</link>
		<link id="12_11" from="12" to="11" length="1700.0" freespeed="6.944444444444445" capacity="3600.0" permlanes="2.0" oneway="1" modes="car" >
		</link>
		<link id="12_13" from="12" to="13" length="1700.0" freespeed="6.944444444444445" capacity="3600.0" permlanes="2.0" oneway="1" modes="car" >
		</link>
		<link id="12_3" from="12" to="3" length="1700.0" freespeed="6.944444444444445" capacity="3600.0" permlanes="2.0" oneway="1" modes="car" >
		</link>
		<link id="13_12" from="13" to="12" length="3200.0" freespeed="6.944444444444445" capacity="3600.0" permlanes="2.0" oneway="1" modes="car" >
		</link>
		<link id="13_24" from="13" to="24" length="3200.0" freespeed="6.944444444444445" capacity="3600.0" permlanes="2.0" oneway="1" modes="car" >
		</link>
		<link id="14_11" from="14" to="11" length="1700.0" freespeed="13.88888888888889" capacity="6600.0" permlanes="3.0" oneway="1" modes="car" >
		</link>
		<link id="14_15" from="14" to="15" length="1700.0" freespeed="13.88888888888889" capacity="6600.0" permlanes="3.0" oneway="1" modes="car" >
		</link>
		<link id="14_23" from="14" to="23" length="1700.0" freespeed="13.88888888888889" capacity="6600.0" permlanes="3.0" oneway="1" modes="car" >
		</link>
		<link id="15_10" from="15" to="10" length="300.0" freespeed="13.88888888888889" capacity="6600.0" permlanes="3.0" oneway="1" modes="car" >
		</link>
		<link id="15_14" from="15" to="14" length="300.0" freespeed="13.88888888888889" capacity="6600.0" permlanes="3.0" oneway="1" modes="car" >
		</link>
		<link id="15_19" from="15" to="19" length="300.0" freespeed="13.88888888888889" capacity="6600.0" permlanes="3.0" oneway="1" modes="car" >
		</link>
		<link id="15_22" from="15" to="22" length="300.0" freespeed="13.88888888888889" capacity="6600.0" permlanes="3.0" oneway="1" modes="car" >
		</link>
		<link id="16_10" from="16" to="10" length="900.0" freespeed="6.944444444444445" capacity="1800.0" permlanes="1.0" oneway="1" modes="car" >
		</link>
		<link id="16_17" from="16" to="17" length="900.0" freespeed="6.944444444444445" capacity="1800.0" permlanes="1.0" oneway="1" modes="car" >
		</link>
		<link id="16_18" from="16" to="18" length="900.0" freespeed="6.944444444444445" capacity="1800.0" permlanes="1.0" oneway="1" modes="car" >
		</link>
		<link id="16_8" from="16" to="8" length="900.0" freespeed="6.944444444444445" capacity="1800.0" permlanes="1.0" oneway="1" modes="car" >
		</link>
		<link id="17_10" from="17" to="10" length="500.0" freespeed="6.944444444444445" capacity="1800.0" permlanes="1.0" oneway="1" modes="car" >
		</link>
		<link id="17_16" from="17" to="16" length="500.0" freespeed="6.944444444444445" capacity="1800.0" permlanes="1.0" oneway="1" modes="car" >
		</link>
		<link id="17_19" from="17" to="19" length="500.0" freespeed="6.944444444444445" capacity="1800.0" permlanes="1.0" oneway="1" modes="car" >
		</link>
		<link id="18_16" from="18" to="16" length="200.0" freespeed="13.88888888888889" capacity="6600.0" permlanes="3.0" oneway="1" modes="car" >
		</link>
		<link id="18_18D" from="18" to="18D" length="141.4213562373095" freespeed="100.0" capacity="6000.0" permlanes="1.0" oneway="1" modes="car" >
		</link>
		<link id="18_20" from="18" to="20" length="200.0" freespeed="13.88888888888889" capacity="6600.0" permlanes="3.0" oneway="1" modes="car" >
		</link>
		<link id="18_7" from="18" to="7" length="200.0" freespeed="13.88888888888889" capacity="6600.0" permlanes="3.0" oneway="1" modes="car" >
		</link>
		<link id="19_15" from="19" to="15" length="1700.0" freespeed="13.88888888888889" capacity="6600.0" permlanes="3.0" oneway="1" modes="car" >
		</link>
		<link id="19_17" from="19" to="17" length="1700.0" freespeed="13.88888888888889" capacity="6600.0" permlanes="3.0" oneway="1" modes="car" >
		</link>
		<link id="19_20" from="19" to="20" length="1700.0" freespeed="13.88888888888889" capacity="6600.0" permlanes="3.0" oneway="1" modes="car" >
		</link>
		<link id="1_2" from="1" to="2" length="400.0" freespeed="6.944444444444445" capacity="1800.0" permlanes="1.0" oneway="1" modes="car" >
		</link>
		<link id="1_3" from="1" to="3" length="400.0" freespeed="6.944444444444445" capacity="1800.0" permlanes="1.0" oneway="1" modes="car" >
		</link>
		<link id="20_18" from="20" to="18" length="3200.0" freespeed="6.944444444444445" capacity="3600.0" permlanes="2.0" oneway="1" modes="car" >
		</link>
		<link id="20_19" from="20" to="19" length="3200.0" freespeed="6.944444444444445" capacity="3600.0" permlanes="2.0" oneway="1" modes="car" >
		</link>
		<link id="20_20D" from="20" to="20D" length="141.4213562373095" freespeed="100.0" capacity="6000.0" permlanes="1.0" oneway="1" modes="car" >
		</link>
		<link id="20_21" from="20" to="21" length="3200.0" freespeed="6.944444444444445" capacity="3600.0" permlanes="2.0" oneway="1" modes="car" >
		</link>
		<link id="20_22" from="20" to="22" length="3200.0" freespeed="6.944444444444445" capacity="3600.0" permlanes="2.0" oneway="1" modes="car" >
		</link>
		<link id="21_20" from="21" to="20" length="300.0" freespeed="6.944444444444445" capacity="3600.0" permlanes="2.0" oneway="1" modes="car" >
		</link>
		<link id="21_22" from="21" to="22" length="300.0" freespeed="6.944444444444445" capacity="3600.0" permlanes="2.0" oneway="1" modes="car" >
		</link>
		<link id="21_24" from="21" to="24" length="300.0" freespeed="6.944444444444445" capacity="3600.0" permlanes="2.0" oneway="1" modes="car" >
		</link>
		<link id="22_15" from="22" to="15" length="1100.0" freespeed="6.944444444444445" capacity="3600.0" permlanes="2.0" oneway="1" modes="car" >
		</link>
		<link id="22_20" from="22" to="20" length="1100.0" freespeed="6.944444444444445" capacity="3600.0" permlanes="2.0" oneway="1" modes="car" >
		</link>
		<link id="22_21" from="22" to="21" length="1100.0" freespeed="6.944444444444445" capacity="3600.0" permlanes="2.0" oneway="1" modes="car" >
		</link>
		<link id="22_23" from="22" to="23" length="1100.0" freespeed="6.944444444444445" capacity="3600.0" permlanes="2.0" oneway="1" modes="car" >
		</link>
		<link id="23_14" from="23" to="14" length="300.0" freespeed="6.944444444444445" capacity="3600.0" permlanes="2.0" oneway="1" modes="car" >
		</link>
		<link id="23_22" from="23" to="22" length="300.0" freespeed="6.944444444444445" capacity="3600.0" permlanes="2.0" oneway="1" modes="car" >
		</link>
		<link id="23_24" from="23" to="24" length="300.0" freespeed="6.944444444444445" capacity="3600.0" permlanes="2.0" oneway="1" modes="car" >
		</link>
		<link id="24_13" from="24" to="13" length="200.0" freespeed="6.944444444444445" capacity="3600.0" permlanes="2.0" oneway="1" modes="car" >
		</link>
		<link id="24_21" from="24" to="21" length="200.0" freespeed="6.944444444444445" capacity="3600.0" permlanes="2.0" oneway="1" modes="car" >
		</link>
		<link id="24_23" from="24" to="23" length="200.0" freespeed="6.944444444444445" capacity="3600.0" permlanes="2.0" oneway="1" modes="car" >
		</link>
		<link id="2_1" from="2" to="1" length="300.0" freespeed="13.88888888888889" capacity="6600.0" permlanes="3.0" oneway="1" modes="car" >
		</link>
		<link id="2_6" from="2" to="6" length="300.0" freespeed="13.88888888888889" capacity="6600.0" permlanes="3.0" oneway="1" modes="car" >
		</link>
		<link id="3_1" from="3" to="1" length="1000.0" freespeed="13.88888888888889" capacity="6600.0" permlanes="3.0" oneway="1" modes="car" >
		</link>
		<link id="3_12" from="3" to="12" length="1000.0" freespeed="13.88888888888889" capacity="6600.0" permlanes="3.0" oneway="1" modes="car" >
		</link>
		<link id="3_4" from="3" to="4" length="1000.0" freespeed="13.88888888888889" capacity="6600.0" permlanes="3.0" oneway="1" modes="car" >
		</link>
		<link id="4_11" from="4" to="11" length="200.0" freespeed="6.944444444444445" capacity="3600.0" permlanes="2.0" oneway="1" modes="car" >
		</link>
		<link id="4_3" from="4" to="3" length="200.0" freespeed="6.944444444444445" capacity="3600.0" permlanes="2.0" oneway="1" modes="car" >
		</link>
		<link id="4_5" from="4" to="5" length="200.0" freespeed="6.944444444444445" capacity="3600.0" permlanes="2.0" oneway="1" modes="car" >
		</link>
		<link id="5_4" from="5" to="4" length="3200.0" freespeed="6.944444444444445" capacity="3600.0" permlanes="2.0" oneway="1" modes="car" >
		</link>
		<link id="5_6" from="5" to="6" length="3200.0" freespeed="6.944444444444445" capacity="3600.0" permlanes="2.0" oneway="1" modes="car" >
		</link>
		<link id="5_9" from="5" to="9" length="3200.0" freespeed="6.944444444444445" capacity="3600.0" permlanes="2.0" oneway="1" modes="car" >
		</link>
		<link id="6_2" from="6" to="2" length="200.0" freespeed="6.944444444444445" capacity="3600.0" permlanes="2.0" oneway="1" modes="car" >
		</link>
		<link id="6_5" from="6" to="5" length="200.0" freespeed="6.944444444444445" capacity="3600.0" permlanes="2.0" oneway="1" modes="car" >
		</link>
		<link id="6_6D" from="6" to="6D" length="141.4213562373095" freespeed="100.0" capacity="6000.0" permlanes="1.0" oneway="1" modes="car" >
		</link>
		<link id="6_8" from="6" to="8" length="200.0" freespeed="6.944444444444445" capacity="3600.0" permlanes="2.0" oneway="1" modes="car" >
		</link>
		<link id="7_18" from="7" to="18" length="100.0" freespeed="6.944444444444445" capacity="3600.0" permlanes="2.0" oneway="1" modes="car" >
		</link>
		<link id="7_7D" from="7" to="7D" length="141.4213562373095" freespeed="100.0" capacity="6000.0" permlanes="1.0" oneway="1" modes="car" >
		</link>
		<link id="7_8" from="7" to="8" length="100.0" freespeed="6.944444444444445" capacity="3600.0" permlanes="2.0" oneway="1" modes="car" >
		</link>
		<link id="8_16" from="8" to="16" length="400.0" freespeed="6.944444444444445" capacity="1800.0" permlanes="1.0" oneway="1" modes="car" >
		</link>
		<link id="8_6" from="8" to="6" length="400.0" freespeed="6.944444444444445" capacity="1800.0" permlanes="1.0" oneway="1" modes="car" >
		</link>
		<link id="8_7" from="8" to="7" length="400.0" freespeed="6.944444444444445" capacity="1800.0" permlanes="1.0" oneway="1" modes="car" >
		</link>
		<link id="8_9" from="8" to="9" length="400.0" freespeed="6.944444444444445" capacity="1800.0" permlanes="1.0" oneway="1" modes="car" >
		</link>
		<link id="9_10" from="9" to="10" length="400.0" freespeed="6.944444444444445" capacity="1800.0" permlanes="1.0" oneway="1" modes="car" >
		</link>
		<link id="9_5" from="9" to="5" length="400.0" freespeed="6.944444444444445" capacity="1800.0" permlanes="1.0" oneway="1" modes="car" >
		</link>
		<link id="9_8" from="9" to="8" length="400.0" freespeed="6.944444444444445" capacity="1800.0" permlanes="1.0" oneway="1" modes="car" >
		</link>
		<link id="O13_13" from="O13" to="13" length="141.4213562373095" freespeed="100.0" capacity="6000.0" permlanes="1.0" oneway="1" modes="car" >
		</link>
		<link id="O1_1" from="O1" to="1" length="141.4213562373095" freespeed="100.0" capacity="6000.0" permlanes="1.0" oneway="1" modes="car" >
		</link>
		<link id="O2_2" from="O2" to="2" length="141.4213562373095" freespeed="100.0" capacity="6000.0" permlanes="1.0" oneway="1" modes="car" >
		</link>
		<link id="O3_3" from="O3" to="3" length="141.4213562373095" freespeed="100.0" capacity="6000.0" permlanes="1.0" oneway="1" modes="car" >
		</link>
	</links>

<!-- ====================================================================== -->

</network>
